Version 4
SHEET 1 880 680
WIRE 96 64 96 32
WIRE 112 64 96 64
WIRE 96 80 96 64
WIRE 112 128 112 64
WIRE 112 128 96 128
WIRE 48 160 16 160
WIRE 96 208 96 176
WIRE 256 208 96 208
WIRE -384 224 -384 160
WIRE 16 224 16 160
WIRE 16 224 -48 224
WIRE 96 224 96 208
WIRE 16 304 16 224
WIRE 48 304 16 304
WIRE 96 304 96 272
WIRE 96 368 96 320
FLAG 96 368 0
FLAG -48 224 A
FLAG 256 208 Out
IOPIN 256 208 Out
FLAG -384 304 0
FLAG -384 160 A
FLAG 96 -48 0
SYMBOL nmos4 48 224 R0
SYMATTR InstName M1
SYMBOL pmos4 48 80 R0
SYMATTR InstName M2
SYMBOL voltage 96 48 R180
WINDOW 0 24 96 Left 2
WINDOW 3 24 16 Left 2
WINDOW 123 0 0 Left 0
WINDOW 39 0 0 Left 0
SYMATTR InstName V1
SYMATTR Value 1
SYMBOL voltage -384 208 R0
WINDOW 123 0 0 Left 0
WINDOW 39 0 0 Left 0
SYMATTR InstName V2
SYMATTR Value 1
TEXT -288 40 Left 2 !.lib 45nm_HP.pm.txt
TEXT -418 392 Left 2 !;tran 40n
TEXT -928 344 Left 2 !.dc V2 0 1 0.01
