Version 4
SHEET 1 880 680
SYMBOL nmos4 -928 368 R0
SYMATTR InstName M1
SYMATTR Value2 l=45n w=1u
TEXT -1136 -104 Left 2 !.include 45nm_LP.pm
